&NAMAATESTPROG
  NFLDUA=1,
  NFLDSU=0,
  NMSMAX=10,
  NSMAX=9,
  NDGLG=18,
  NFLEVG=1,
  NDLON=20,
  NPRINTLEV=1,
  NTIME=1,
  LELAM=.TRUE.,
/
&NAMTRANS
/
&NAMPAR0
/
&NAMPAR1
/
&NAMRGRI
/

